@<TRIPOS>MOLECULE
                                        
    2     1    0     0     0
SMALL
NO_CHARGES
****

@<TRIPOS>ATOM
1     F1              12.4166  -7.9826  -0.1616 F         0 ABCD   0.0000
2     F2              11.4347  -7.9330   0.1177 F         0 ABCD   0.0000
@<TRIPOS>BOND
1     1     2     2
