@<TRIPOS>MOLECULE

   17    16    0     0     0
SMALL
NO_CHARGES
****

@<TRIPOS>ATOM
1      C1              2.1420   1.3950  -8.9320 C.3       1 BUTL  -0.0607
2      C2              3.6310   1.4160  -8.5370 C.3       1 BUTL  -0.0518
3      C3              4.2030  -0.0120  -8.6120 C.3       1 BUTL  -0.0494
4      C4              5.6910   0.0090  -8.2180 C.3       1 BUTL  -0.0518
5     1H1              1.6040   0.7600  -8.2600 H         1 BUTL   0.0214
6     2H1              1.7450   2.3880  -8.8800 H         1 BUTL   0.0214
7     3H1              2.0430   1.0240  -9.9300 H         1 BUTL   0.0214
8     1H2              4.1690   2.0510  -9.2100 H         1 BUTL   0.0243
9     2H2              3.7310   1.7880  -7.5390 H         1 BUTL   0.0243
10    1H3              3.6650  -0.6470  -7.9400 H         1 BUTL   0.0245
11    2H3              4.1040  -0.3840  -9.6100 H         1 BUTL   0.0245
12    1H4              5.7930   0.3880  -7.2010 H         1 BUTL   0.0243
13    2H4              6.2400   0.6560  -8.9030 H         1 BUTL   0.0243
14     C1              6.2630  -1.4180  -8.2930 C.3       1 METH  -0.0607
15    1H1              6.1620  -1.7970  -9.3090 H         1 METH   0.0214
16    2H1              5.7150  -2.0650  -7.6080 H         1 METH   0.0214
17    3H1              7.3160  -1.4030  -8.0130 H         1 METH   0.0214
@<TRIPOS>BOND
1     1     2     1
2     1     5     1
3     1     6     1
4     1     7     1
5     2     3     1
6     2     8     1
7     2     9     1
8     3     4     1
9     3     10    1
10    3     11    1
11    4     12    1
12    4     13    1
13    4     14    1
14    14    15    1
15    14    16    1
16    14    17    1
