@<TRIPOS>MOLECULE
                                        
   18    17    0     0     0
SMALL
NO_CHARGES
****

@<TRIPOS>ATOM
1     C1               9.5188 -11.3338  -1.0041 C.3       0 ABCD  -0.0608
2     C2              10.8095 -10.5456  -0.7918 C.3       0 ABCD  -0.0523
3     C3              12.0276 -11.3860  -1.1653 C.3       0 ABCD  -0.0477
4     C4              13.3236 -10.5909  -1.0365 C.3       0 ABCD  -0.0261
5     C5              14.5304 -11.4652  -1.3661 C.3       0 ABCD   0.0511
6     O6              15.7441 -10.7491  -1.1963 O.3       0 ABCD  -0.3764
7     H7               9.3938 -11.5882  -2.0790 H         0 ABCD   0.0215
8     H8               9.5702 -12.2710  -0.4070 H         0 ABCD   0.0215
9     H9               8.6416 -10.7349  -0.6775 H         0 ABCD   0.0215
10    H10             10.7832  -9.6417  -1.4411 H         0 ABCD   0.0245
11    H11             10.8849 -10.2327   0.2742 H         0 ABCD   0.0245
12    H12             12.0775 -12.2601  -0.4785 H         0 ABCD   0.0248
13    H13             11.9191 -11.7434  -2.2130 H         0 ABCD   0.0248
14    H14             13.2933  -9.7371  -1.7509 H         0 ABCD   0.0270
15    H15             13.4191 -10.2005   0.0011 H         0 ABCD   0.0270
16    H16             14.5338 -12.3406  -0.6792 H         0 ABCD   0.0530
17    H17             14.4559 -11.8215  -2.4174 H         0 ABCD   0.0530
18    H18             15.6941 -10.0245  -1.8237 H         0 ABCD   0.1891
@<TRIPOS>BOND
1     1     2     1
2     1     7     1
3     1     8     1
4     1     9     1
5     2     3     1
6     2     10    1
7     2     11    1
8     3     4     1
9     3     12    1
10    3     13    1
11    4     5     1
12    4     14    1
13    4     15    1
14    5     6     1
15    5     16    1
16    5     17    1
17    6     18    1
